Circuit: * C:\Users\RAJARETNAM SAIRISAN\Desktop\Document\Linear Power Supply\Power supply Helios.asc

WARNING: Less than two connections to node N006.  This node is used by R3.
Direct Newton iteration for .op point succeeded.
Ignoring empty pin current: Ix(u1:1)
Ignoring empty pin current: Ix(u1:2)
Ignoring empty pin current: Ix(u1:1)
Ignoring empty pin current: Ix(u1:2)

Date: Mon Oct 30 17:35:07 2023
Total elapsed time: 0.105 seconds.

tnom = 27
temp = 27
method = modified trap
totiter = 2116
traniter = 2088
tranpoints = 1045
accept = 1045
rejected = 0
matrix size = 9
fillins = 2
solver = Normal
Matrix Compiler1: 466 bytes object code size  0.2/0.1/[0.1]
Matrix Compiler2: 715 bytes object code size  0.1/0.1/[0.1]

